21
 energy: -39.530635211716 gnorm: 0.000069715303 xtb: 6.6.1 (8d0f1dd)
B            0.00007975508872       -1.16310502857105        0.00011392014826
N           -1.24634784932987       -0.24123251300253        0.00128615781143
C           -2.51745967005939       -0.61970487279053        0.00296250982207
C           -3.35685920968723        0.50390176336459        0.00239547875539
C           -2.54066849425943        1.61143647955715        0.00007973273770
C           -1.20567032220829        1.13794236643601       -0.00046985608563
C           -0.00044976131305        1.82091339029405       -0.00170782132836
C            1.20501544736379        1.13836906426641       -0.00082916650845
N            1.24617912013703       -0.24078962051812        0.00086826721739
C            2.51742646619044       -0.61881477940707        0.00222214552765
C            3.35642785180546        0.50508715783226        0.00152420153732
C            2.53984536399578        1.61233521168005       -0.00060279922192
F            0.00001622115820       -1.94827553230326       -1.13039407798640
F            0.00042111707188       -1.95106281636612        1.12858902218768
H           -2.78176442933928       -1.65990824717435        0.00455900218193
H           -4.42855739728364        0.48258364208073        0.00357228930831
H           -2.83128108720848        2.64362177798487       -0.00093909545385
H           -0.00064151206260        2.90052473666582       -0.00315837778478
H            2.78209736471591       -1.65892482266993        0.00371847737431
H            4.42813366020374        0.48414893460965        0.00246073866936
H            2.83009422642030        2.64462254063138       -0.00166748780943
