3
 energy: -5.070544366859 gnorm: 0.000158543022 xtb: 6.6.1 (8d0f1dd)
O            0.00000000006888        0.01172016799373        0.00000000000000
H            0.77251630905185        0.58039991597647        0.00000000000000
H           -0.77251630912073        0.58039991602980        0.00000000000000
