21
 energy: -39.530635246305 gnorm: 0.000071044093 xtb: 6.6.1 (8d0f1dd)
B            0.00000086896976       -1.16295660390517        0.00064448615290
N            1.24633884232971       -0.24096437845371        0.00067359497941
C            2.51748357580100       -0.61930944745787        0.00136037830955
C            3.35678778024359        0.50437572429341        0.00106157204315
C            2.54048835357920        1.61183147108712       -0.00003269911357
C            1.20553232792694        1.13820189776338       -0.00010855653924
C            0.00024435052162        1.82105025066916       -0.00044308179129
C           -1.20516279548865        1.13839629439915        0.00021057536142
N           -1.24618593305426       -0.24075870955669        0.00103760388482
C           -2.51739448092093       -0.61890486421887        0.00197942308228
C           -3.35651572817969        0.50491210370160        0.00181812643464
C           -2.54003654885069        1.61224097380912        0.00054302188708
F            0.00011494038371       -1.94981705279545        1.12993188635984
F           -0.00024163558212       -1.94924682891811       -1.12904465878341
H            2.78188967343832       -1.65948960141612        0.00209940408140
H            4.42848632285531        0.48315733078625        0.00157360309238
H            2.83100060311519        2.64404694287020       -0.00055328778990
H            0.00033111561667        2.90066208577195       -0.00120622030479
H           -2.78196291985651       -1.65904274558833        0.00280241712646
H           -4.42821724981527        0.48386882942008        0.00253621223524
H           -2.83038740373292        2.64450167733892        0.00006223449162
